 **********************************************
 **** Specfem 3-D Solver - MPI version f90 ****
 **********************************************
 
 Running Git package version of the code: v2.0.2-3297-g770bb14
 which is Git commit 770bb14d5dab47f701c847a519d2b548be283671
 dating From Date:   Mon Jul 5 06:07:42 2021 -0400
 
 
 
 
 There are           16  MPI processes
 Processes are numbered from 0 to           15
 
 There is a total of           16  slices
 
  NDIM =            3
 
  NGLLX =            5
  NGLLY =            5
  NGLLZ =            5
 
 using single precision for the calculations
 using force vectorization
 
 smallest and largest possible floating-point numbers are:   1.1754944E-38
  3.4028235E+38
 
 velocity model:   tomo
 
 Reading mesh databases...
   reads binary mesh files: proc***_external_mesh.bin
   from directory         : ./OUTPUT_FILES/DATABASES_MPI
   done
 
 total acoustic elements    :           0
 total elastic elements     :      536576
 total poroelastic elements :           0
 
 Mesh resolution:
 
 ********
 minimum and maximum number of elements
 and points in the CUBIT + SCOTCH mesh:
 
 NSPEC_global_min =        33536
 NSPEC_global_max =        33536
 NSPEC_global_max / NSPEC_global_min imbalance =    1.000000      = 
  0.0000000E+00  %
 NSPEC_global_sum =       536576
 
 NGLOB_global_min =      2196361
 NGLOB_global_max =      2196361
 NGLOB_global_max / NGLOB_global_min imbalance =    1.000000      = 
  0.0000000E+00  %
 NGLOB_global_sum =     35141776
 
 If you have elements of a single type (all acoustic, all elastic, all poroelast
 ic, and without CPML)
 in the whole mesh, then there should be no significant imbalance in the above n
 umbers.
 Otherwise, it is normal to have imbalance in elements and points because the do
 main decomposer
 compensates for the different cost of different elements by partitioning them u
 nevenly among processes.
 ********
 
 
 ********
 Model: P   velocity min,max =    1500.000       8474.351    
 Model: S   velocity min,max =    337.3000       5074.950    
 
 Model: Poisson's ratio min,max =   0.2148904      0.4733710    
 ********
 
 *********************************************
 *** Verification of simulation parameters ***
 *********************************************
 
 *** Xmin and Xmax of the model =   -211641.2       2308359.    
 *** Ymin and Ymax of the model =    2226691.       4746691.    
 *** Zmin and Zmax of the model =   -200000.0      0.0000000E+00
 
 *** Max GLL point distance =    12888.50    
 *** Min GLL point distance =    345.3457    
 *** Max/min ratio =    37.32058    
 
 *** Max element size =    39375.25    
 *** Min element size =    2000.000    
 *** Max/min ratio =    19.68763    
 
 *** Minimum period resolved =    145.9198    
 *** Maximum suggested time step =   2.7051959E-02
 
 *** for DT :   1.000000000000000E-002
 *** Max stability for wave velocities =   0.1848295    
 
 Elapsed time for checking mesh resolution in seconds =   4.999197099823505E-002
 saving VTK files for Courant number and minimum period
 
 
 ******************************************
 There is a total of           16  slices
 ******************************************
 
 movie simulation:
   shakemap output
   surface movie
 
 mesh surfaces:
   high-resolution  =  F
   nfaces per slice =         1024        1024        1024        1024
        1024        1024        1024        1024        1024        1024
        1024        1024        1024        1024        1024        1024
 
   total number of surface faces is        16384
 
 shakemap:
   movie type 1: horizontal peak-ground values
 
 surface movies:
   saving: particle velocities
   number of steps between frames =          200
 
 
 kd-tree:
   total data points:        33536
   theoretical   number of nodes:        67069
                tree memory size:    2.046783     MB
   actual        number of nodes:        67071
                tree memory size:    2.046844     MB
   maximum depth   :           17
   creation timing :   1.5139580E-02 (s)
 
 
 sources:           1
 
 ********************
  locating sources
 ********************
 
 reading source information from ./DATA/CMTSOLUTION file
 
 no UTM projection
 
 
 source #            1
   source located in slice            7
                  in element        30401
                  in elastic domain
 
   using moment tensor source: 
     xi coordinate of source in that element:   0.236241269841270     
     eta coordinate of source in that element:   0.954666666666667     
     gamma coordinate of source in that element:    1.00000000000000     
 
   source time function:
     using Heaviside source time function
     half duration:    1.30000000000000       seconds
     time shift:   0.000000000000000E+000  seconds
 
   magnitude of the source:
        scalar moment M0 =   1.000000000000000E+025  dyne-cm
     moment magnitude Mw =    5.96666685740153     
 
   original (requested) position of the source:
 
             latitude:    3466557.00000000     
            longitude:    1690528.00000000     
 
                x:    1690528.00000000     
                y:    3466557.00000000     
            depth:    6.00000000000000       km
   topo elevation:   0.000000000000000E+000
 
   position of the source that will be used:
 
                x:    1690528.00000000     
                y:    3466557.00000000     
            depth:    6.00000000000000       km
                z:   -6000.00000000000     
 
   error in location of the source:   0.0000000E+00  m
 
 
 
 maximum error in location of the sources:   0.0000000E+00  m
 
 
 Elapsed time for detection of sources in seconds =   1.568854087963700E-002
 
 End of source detection - done
 
 
 Each source is being convolved with HDUR_MOVIE =   0.000000000000000E+000
 
 
 printing the source-time function
 
 receivers:
 
 there are          138  stations in file ./DATA/STATIONS
 saving          138  stations inside the model in file ./DATA/STATIONS_FILTERED
 excluding            0  stations located outside the model
 
 
 Total number of receivers =          138
 
 
 ********************
  locating receivers
 ********************
 
 reading receiver information from ./DATA/STATIONS_FILTERED file
 
 
 station #            1     IR    RST1
      original latitude:    4130710.    
      original longitude:    910822.8    
      original x:    910822.8    
      original y:    4130710.    
      original depth:   0.0000000E+00  m
      horizontal distance:    1024.226    
      target x, y, z:    910822.8       4130710.      0.0000000E+00
      closest estimate found:   0.0000000E+00  m away
 
      receiver located in slice           13
                       in element        32538
                       in elastic domain
      at coordinates: 
      xi    =  -0.971918580497967     
      eta   =   0.424117583569523     
      gamma =    1.00000000000000     
      rotation matrix: 
      nu1 =    1.000000      0.0000000E+00  0.0000000E+00
      nu2 =   0.0000000E+00   1.000000      0.0000000E+00
      nu3 =   0.0000000E+00  0.0000000E+00   1.000000    
      x:    910822.738973223     
      y:    4130709.40746326     
      depth:   0.000000000000000E+000  m
      z:   0.000000000000000E+000
 
 
 
 station #            2     IR    KFM
      original latitude:    3713059.    
      original longitude:    764407.4    
      original x:    764407.4    
      original y:    3713059.    
      original depth:   0.0000000E+00  m
      horizontal distance:    958.3645    
      target x, y, z:    764407.4       3713059.      0.0000000E+00
      closest estimate found:   4.6566129E-10  m away
 
      receiver located in slice            9
                       in element        32882
                       in elastic domain
      at coordinates: 
      xi    =   0.154143531113626     
      eta   =  -3.881929029358758E-003
      gamma =    1.00000000000000     
      rotation matrix: 
      nu1 =    1.000000      0.0000000E+00  0.0000000E+00
      nu2 =   0.0000000E+00   1.000000      0.0000000E+00
      nu3 =   0.0000000E+00  0.0000000E+00   1.000000    
      x:    764407.412884400     
      y:    3713058.78726112     
      depth:   0.000000000000000E+000  m
      z:   0.000000000000000E+000
 
 
 
 station #            3     IR    KHNJ
      original latitude:    3157359.    
      original longitude:    1755634.    
      original x:    1755634.    
      original y:    3157359.    
      original depth:   0.0000000E+00  m
      horizontal distance:    315.9785    
      target x, y, z:    1755634.       3157359.      0.0000000E+00
      closest estimate found:   5.2062515E-10  m away
 
      receiver located in slice            7
                       in element        32996
                       in elastic domain
      at coordinates: 
      xi    =   0.850199556222958     
      eta   =  -0.455957726429491     
      gamma =    1.00000000000000     
      rotation matrix: 
      nu1 =    1.000000      0.0000000E+00  0.0000000E+00
      nu2 =   0.0000000E+00   1.000000      0.0000000E+00
      nu3 =   0.0000000E+00  0.0000000E+00   1.000000    
      x:    1755634.15188157     
      y:    3157358.66613046     
      depth:   0.000000000000000E+000  m
      z:   0.000000000000000E+000
 
 
 
 station #            4     IR    TEH
      original latitude:    3975307.    
      original longitude:    1078023.    
      original x:    1078023.    
      original y:    3975307.    
      original depth:   0.0000000E+00  m
      horizontal distance:    796.2340    
      target x, y, z:    1078023.       3975307.      0.0000000E+00
      closest estimate found:   4.6566129E-10  m away
 
      receiver located in slice           10
                       in element        33282
                       in elastic domain
      at coordinates: 
      xi    =   1.355458109042947E-002
      eta   =   0.637223114073530     
      gamma =    1.00000000000000     
      rotation matrix: 
      nu1 =    1.000000      0.0000000E+00  0.0000000E+00
      nu2 =   0.0000000E+00   1.000000      0.0000000E+00
      nu3 =   0.0000000E+00  0.0000000E+00   1.000000    
      x:    1078023.42790761     
      y:    3975307.16502916     
      depth:   0.000000000000000E+000  m
      z:   0.000000000000000E+000
 
 
 
 station #            5     IR    MNB1
      original latitude:    3056709.    
      original longitude:    1704612.    
      original x:    1704612.    
      original y:    3056709.    
      original depth:   0.0000000E+00  m
      horizontal distance:    410.0899    
      target x, y, z:    1704612.       3056709.      0.0000000E+00
      closest estimate found:   4.6566129E-10  m away
 
      receiver located in slice            7
                       in element        32834
                       in elastic domain
      at coordinates: 
      xi    =  -0.332993242660139     
      eta   =  -0.680685080850141     
      gamma =    1.00000000000000     
      rotation matrix: 
      nu1 =    1.000000      0.0000000E+00  0.0000000E+00
      nu2 =   0.0000000E+00   1.000000      0.0000000E+00
      nu3 =   0.0000000E+00  0.0000000E+00   1.000000    
      x:    1704612.09776756     
      y:    3056709.00623538     
      depth:   0.000000000000000E+000  m
      z:   0.000000000000000E+000
 
 
 
 station #            6     IR    KHGB
      original latitude:    3416904.    
      original longitude:    1606332.    
      original x:    1606332.    
      original y:    3416904.    
      original depth:   0.0000000E+00  m
      horizontal distance:    97.74651    
      target x, y, z:    1606332.       3416904.      0.0000000E+00
      closest estimate found:   0.0000000E+00  m away
 
      receiver located in slice            6
                       in element        33437
                       in elastic domain
      at coordinates: 
      xi    =  -0.317023650790775     
      eta   =  -8.940747744535643E-002
      gamma =    1.00000000000000     
      rotation matrix: 
      nu1 =    1.000000      0.0000000E+00  0.0000000E+00
      nu2 =   0.0000000E+00   1.000000      0.0000000E+00
      nu3 =   0.0000000E+00  0.0000000E+00   1.000000    
      x:    1606331.79843753     
      y:    3416904.39514390     
      depth:   0.000000000000000E+000  m
      z:   0.000000000000000E+000
 
 
 
 station #            7     IR    AFRZ
      original latitude:    3787624.    
      original longitude:    1808004.    
      original x:    1808004.    
      original y:    3787624.    
      original depth:   0.0000000E+00  m
      horizontal distance:    341.8842    
      target x, y, z:    1808004.       3787624.      0.0000000E+00
      closest estimate found:   2.3283064E-10  m away
 
      receiver located in slice           11
                       in element        32999
                       in elastic domain
      at coordinates: 
      xi    =   0.170318915382241     
      eta   =  -0.428974651152670     
      gamma =    1.00000000000000     
      rotation matrix: 
      nu1 =    1.000000      0.0000000E+00  0.0000000E+00
      nu2 =   0.0000000E+00   1.000000      0.0000000E+00
      nu3 =   0.0000000E+00  0.0000000E+00   1.000000    
      x:    1808004.07682329     
      y:    3787624.28077772     
      depth:   0.000000000000000E+000  m
      z:   0.000000000000000E+000
 
 
 
 station #            8     IR    LIN
      original latitude:    3865785.    
      original longitude:    679270.7    
      original x:    679270.7    
      original y:    3865785.    
      original depth:   0.0000000E+00  m
      horizontal distance:    1087.209    
      target x, y, z:    679270.7       3865785.      0.0000000E+00
      closest estimate found:   4.7999266E-10  m away
 
      receiver located in slice            9
                       in element        33134
                       in elastic domain
      at coordinates: 
      xi    =  -0.494667030683353     
      eta   =  -0.488817166952881     
      gamma =    1.00000000000000     
      rotation matrix: 
      nu1 =    1.000000      0.0000000E+00  0.0000000E+00
      nu2 =   0.0000000E+00   1.000000      0.0000000E+00
      nu3 =   0.0000000E+00  0.0000000E+00   1.000000    
      x:    679270.683916711     
      y:    3865785.20601281     
      depth:   0.000000000000000E+000  m
      z:   0.000000000000000E+000
 
 
 
 station #            9     IR    DAMV
      original latitude:    3965363.    
      original longitude:    1131704.    
      original x:    1131704.    
      original y:    3965363.    
      original depth:   0.0000000E+00  m
      horizontal distance:    749.0603    
      target x, y, z:    1131704.       3965363.      0.0000000E+00
      closest estimate found:   9.3132257E-10  m away
 
      receiver located in slice           10
                       in element        33285
                       in elastic domain
      at coordinates: 
      xi    =  -0.533165084335390     
      eta   =  -0.372997318862568     
      gamma =    1.00000000000000     
      rotation matrix: 
      nu1 =    1.000000      0.0000000E+00  0.0000000E+00
      nu2 =   0.0000000E+00   1.000000      0.0000000E+00
      nu3 =   0.0000000E+00  0.0000000E+00   1.000000    
      x:    1131704.15620107     
      y:    3965362.80764245     
      depth:   0.000000000000000E+000  m
      z:   0.000000000000000E+000
 
 
 
 station #           10     IR    BSRN
      original latitude:    3628541.    
      original longitude:    1839500.    
      original x:    1839500.    
      original y:    3628541.    
      original depth:   0.0000000E+00  m
      horizontal distance:    220.0716    
      target x, y, z:    1839500.       3628541.      0.0000000E+00
      closest estimate found:   5.2062515E-10  m away
 
      receiver located in slice           11
                       in element        32745
                       in elastic domain
      at coordinates: 
      xi    =  -0.630090936146079     
      eta   =  -0.589811237422264     
      gamma =    1.00000000000000     
      rotation matrix: 
      nu1 =    1.000000      0.0000000E+00  0.0000000E+00
      nu2 =   0.0000000E+00   1.000000      0.0000000E+00
      nu3 =   0.0000000E+00  0.0000000E+00   1.000000    
      x:    1839500.04234731     
      y:    3628541.04563162     
      depth:   0.000000000000000E+000  m
      z:   0.000000000000000E+000
 
 
 
 station #           11     IR    CSN1
      original latitude:    4165274.    
      original longitude:    861730.4    
      original x:    861730.4    
      original y:    4165274.    
      original depth:   0.0000000E+00  m
      horizontal distance:    1084.026    
      target x, y, z:    861730.4       4165274.      0.0000000E+00
      closest estimate found:   0.0000000E+00  m away
 
      receiver located in slice           13
                       in element        32599
                       in elastic domain
      at coordinates: 
      xi    =   4.092215343569480E-002
      eta   =  -6.451997503562579E-002
      gamma =    1.00000000000000     
      rotation matrix: 
      nu1 =    1.000000      0.0000000E+00  0.0000000E+00
      nu2 =   0.0000000E+00   1.000000      0.0000000E+00
      nu3 =   0.0000000E+00  0.0000000E+00   1.000000    
      x:    861730.389947883     
      y:    4165274.38149574     
      depth:   0.000000000000000E+000  m
      z:   0.000000000000000E+000
 
 
 
 station #           12     IR    TKDS
      original latitude:    3785934.    
      original longitude:    1627744.    
      original x:    1627744.    
      original y:    3785934.    
      original depth:   0.0000000E+00  m
      horizontal distance:    325.4896    
      target x, y, z:    1627744.       3785934.      0.0000000E+00
      closest estimate found:   0.0000000E+00  m away
 
      receiver located in slice           10
                       in element        33022
                       in elastic domain
      at coordinates: 
      xi    =  -0.141833527208579     
      eta   =  -0.600697535040472     
      gamma =    1.00000000000000     
      rotation matrix: 
      nu1 =    1.000000      0.0000000E+00  0.0000000E+00
      nu2 =   0.0000000E+00   1.000000      0.0000000E+00
      nu3 =   0.0000000E+00  0.0000000E+00   1.000000    
      x:    1627743.82621654     
      y:    3785933.88363945     
      depth:   0.000000000000000E+000  m
      z:   0.000000000000000E+000
 
 
 
 station #           13     IR    JSK1
      original latitude:    2898411.    
      original longitude:    1788596.    
      original x:    1788596.    
      original y:    2898411.    
      original depth:   0.0000000E+00  m
      horizontal distance:    576.5476    
      target x, y, z:    1788596.       2898411.      0.0000000E+00
      closest estimate found:   0.0000000E+00  m away
 
      receiver located in slice            7
                       in element        32582
                       in elastic domain
      at coordinates: 
      xi    =   0.198702527983558     
      eta   =  -0.761746757009595     
      gamma =    1.00000000000000     
      rotation matrix: 
      nu1 =    1.000000      0.0000000E+00  0.0000000E+00
      nu2 =   0.0000000E+00   1.000000      0.0000000E+00
      nu3 =   0.0000000E+00  0.0000000E+00   1.000000    
      x:    1788595.97800984     
      y:    2898411.05536069     
      depth:   0.000000000000000E+000  m
      z:   0.000000000000000E+000
 
 
 
 station #           14     IR    TVBK
      original latitude:    3376152.    
      original longitude:    1638508.    
      original x:    1638508.    
      original y:    3376152.    
      original depth:   0.0000000E+00  m
      horizontal distance:    104.3026    
      target x, y, z:    1638508.       3376152.      0.0000000E+00
      closest estimate found:   5.2062515E-10  m away
 
      receiver located in slice            6
                       in element        33374
                       in elastic domain
      at coordinates: 
      xi    =   0.951716140965266     
      eta   =  -0.229299135338125     
      gamma =    1.00000000000000     
      rotation matrix: 
      nu1 =    1.000000      0.0000000E+00  0.0000000E+00
      nu2 =   0.0000000E+00   1.000000      0.0000000E+00
      nu3 =   0.0000000E+00  0.0000000E+00   1.000000    
      x:    1638508.45576263     
      y:    3376152.33663652     
      depth:   0.000000000000000E+000  m
      z:   0.000000000000000E+000
 
 
 
 station #           15     IR    NHDN
      original latitude:    3572970.    
      original longitude:    1938392.    
      original x:    1938392.    
      original y:    3572970.    
      original depth:   0.0000000E+00  m
      horizontal distance:    269.7416    
      target x, y, z:    1938392.       3572970.      0.0000000E+00
      closest estimate found:   0.0000000E+00  m away
 
      receiver located in slice           11
                       in element        32654
                       in elastic domain
      at coordinates: 
      xi    =  -0.583885131414559     
      eta   =  -0.235089789471976     
      gamma =    1.00000000000000     
      rotation matrix: 
      nu1 =    1.000000      0.0000000E+00  0.0000000E+00
      nu2 =   0.0000000E+00   1.000000      0.0000000E+00
      nu3 =   0.0000000E+00  0.0000000E+00   1.000000    
      x:    1938392.38073764     
      y:    3572970.33488489     
      depth:   0.000000000000000E+000  m
      z:   0.000000000000000E+000
 
 
 
 station #           16     IR    GTMR
      original latitude:    3600099.    
      original longitude:    886543.3    
      original x:    886543.3    
      original y:    3600099.    
      original depth:   0.0000000E+00  m
      horizontal distance:    814.9999    
      target x, y, z:    886543.3       3600099.      0.0000000E+00
      closest estimate found:   1.1641532E-10  m away
 
      receiver located in slice            9
                       in element        32696
                       in elastic domain
      at coordinates: 
      xi    =   0.561599009360899     
      eta   =   0.520845361505824     
      gamma =    1.00000000000000     
      rotation matrix: 
      nu1 =    1.000000      0.0000000E+00  0.0000000E+00
      nu2 =   0.0000000E+00   1.000000      0.0000000E+00
      nu3 =   0.0000000E+00  0.0000000E+00   1.000000    
      x:    886543.302748396     
      y:    3600099.07152732     
      depth:   0.000000000000000E+000  m
      z:   0.000000000000000E+000
 
 
 
 station #           17     IR    SHRO
      original latitude:    4041424.    
      original longitude:    1494358.    
      original x:    1494358.    
      original y:    4041424.    
      original depth:   0.0000000E+00  m
      horizontal distance:    607.4163    
      target x, y, z:    1494358.       4041424.      0.0000000E+00
      closest estimate found:   4.6566129E-10  m away
 
      receiver located in slice           10
                       in element        33431
                       in elastic domain
      at coordinates: 
      xi    =   0.307916359837990     
      eta   =  -0.646144684943338     
      gamma =    1.00000000000000     
      rotation matrix: 
      nu1 =    1.000000      0.0000000E+00  0.0000000E+00
      nu2 =   0.0000000E+00   1.000000      0.0000000E+00
      nu3 =   0.0000000E+00  0.0000000E+00   1.000000    
      x:    1494358.55166716     
      y:    4041424.01325759     
      depth:   0.000000000000000E+000  m
      z:   0.000000000000000E+000
 
 
 
 station #           18     IR    SNGE
      original latitude:    3885876.    
      original longitude:    713945.5    
      original x:    713945.5    
      original y:    3885876.    
      original depth:   0.0000000E+00  m
      horizontal distance:    1062.799    
      target x, y, z:    713945.5       3885876.      0.0000000E+00
      closest estimate found:   4.7999266E-10  m away
 
      receiver located in slice            9
                       in element        33168
                       in elastic domain
      at coordinates: 
      xi    =  -0.972147440624438     
      eta   =  -0.447796226593065     
      gamma =    1.00000000000000     
      rotation matrix: 
      nu1 =    1.000000      0.0000000E+00  0.0000000E+00
      nu2 =   0.0000000E+00   1.000000      0.0000000E+00
      nu3 =   0.0000000E+00  0.0000000E+00   1.000000    
      x:    713945.486131353     
      y:    3885876.50589447     
      depth:   0.000000000000000E+000  m
      z:   0.000000000000000E+000
 
 
 
 station #           19     IR    SFB
      original latitude:    3825016.    
      original longitude:    1166540.    
      original x:    1166540.    
      original y:    3825016.    
      original depth:   0.0000000E+00  m
      horizontal distance:    634.8669    
      target x, y, z:    1166540.       3825016.      0.0000000E+00
      closest estimate found:   0.0000000E+00  m away
 
      receiver located in slice           10
                       in element        33063
                       in elastic domain
      at coordinates: 
      xi    =  -0.994268958929796     
      eta   =  -0.630458757866771     
      gamma =    1.00000000000000     
      rotation matrix: 
      nu1 =    1.000000      0.0000000E+00  0.0000000E+00
      nu2 =   0.0000000E+00   1.000000      0.0000000E+00
      nu3 =   0.0000000E+00  0.0000000E+00   1.000000    
      x:    1166540.16493553     
      y:    3825015.92160225     
      depth:   0.000000000000000E+000  m
      z:   0.000000000000000E+000
 
 
 
 station #           20     IR    HSB
      original latitude:    3939749.    
      original longitude:    1069985.    
      original x:    1069985.    
      original y:    3939749.    
      original depth:   0.0000000E+00  m
      horizontal distance:    780.3745    
      target x, y, z:    1069985.       3939749.      0.0000000E+00
      closest estimate found:   5.2062515E-10  m away
 
      receiver located in slice           10
                       in element        33250
                       in elastic domain
      at coordinates: 
      xi    =  -0.803074438120300     
      eta   =  -0.975059566220357     
      gamma =    1.00000000000000     
      rotation matrix: 
      nu1 =    1.000000      0.0000000E+00  0.0000000E+00
      nu2 =   0.0000000E+00   1.000000      0.0000000E+00
      nu3 =   0.0000000E+00  0.0000000E+00   1.000000    
      x:    1069984.73599975     
      y:    3939748.75739502     
      depth:   0.000000000000000E+000  m
      z:   0.000000000000000E+000
 
 
 
 station #           21     IR    HSRG
      original latitude:    3904787.    
      original longitude:    798359.0    
      original x:    798359.0    
      original y:    3904787.    
      original depth:   0.0000000E+00  m
      horizontal distance:    993.9875    
      target x, y, z:    798359.0       3904787.      0.0000000E+00
      closest estimate found:   4.7999266E-10  m away
 
      receiver located in slice            9
                       in element        33204
                       in elastic domain
      at coordinates: 
      xi    =  -0.396803245385056     
      eta   =  -0.526715194117617     
      gamma =    1.00000000000000     
      rotation matrix: 
      nu1 =    1.000000      0.0000000E+00  0.0000000E+00
      nu2 =   0.0000000E+00   1.000000      0.0000000E+00
      nu3 =   0.0000000E+00  0.0000000E+00   1.000000    
      x:    798359.030553241     
      y:    3904787.14730790     
      depth:   0.000000000000000E+000  m
      z:   0.000000000000000E+000
 
 
 
 station #           22     IR    GIDE
      original latitude:    4097607.    
      original longitude:    937462.6    
      original x:    937462.6    
      original y:    4097607.    
      original depth:   0.0000000E+00  m
      horizontal distance:    982.5128    
      target x, y, z:    937462.6       4097607.      0.0000000E+00
      closest estimate found:   9.3132257E-10  m away
 
      receiver located in slice            9
                       in element        33531
                       in elastic domain
      at coordinates: 
      xi    =  -0.265645283276197     
      eta   =  -0.938675674268461     
      gamma =    1.00000000000000     
      rotation matrix: 
      nu1 =    1.000000      0.0000000E+00  0.0000000E+00
      nu2 =   0.0000000E+00   1.000000      0.0000000E+00
      nu3 =   0.0000000E+00  0.0000000E+00   1.000000    
      x:    937462.616742750     
      y:    4097606.91133142     
      depth:   0.000000000000000E+000  m
      z:   0.000000000000000E+000
 
 
 
 station #           23     IR    HAGD
      original latitude:    3861126.    
      original longitude:    878625.3    
      original x:    878625.3    
      original y:    3861126.    
      original depth:   0.0000000E+00  m
      horizontal distance:    902.7019    
      target x, y, z:    878625.3       3861126.      0.0000000E+00
      closest estimate found:   0.0000000E+00  m away
 
      receiver located in slice            9
                       in element        33144
                       in elastic domain
      at coordinates: 
      xi    =  -0.242766332361906     
      eta   =  -0.962121378828514     
      gamma =    1.00000000000000     
      rotation matrix: 
      nu1 =    1.000000      0.0000000E+00  0.0000000E+00
      nu2 =   0.0000000E+00   1.000000      0.0000000E+00
      nu3 =   0.0000000E+00  0.0000000E+00   1.000000    
      x:    878625.331415812     
      y:    3861126.11767716     
      depth:   0.000000000000000E+000  m
      z:   0.000000000000000E+000
 
 
 
 station #           24     IR    SLJL
      original latitude:    4245976.    
      original longitude:    1639615.    
      original x:    1639615.    
      original y:    4245976.    
      original depth:   0.0000000E+00  m
      horizontal distance:    781.0798    
      target x, y, z:    1639615.       4245976.      0.0000000E+00
      closest estimate found:   0.0000000E+00  m away
 
      receiver located in slice           14
                       in element        32735
                       in elastic domain
      at coordinates: 
      xi    =  -0.935851104528138     
      eta   =   0.133689116224315     
      gamma =    1.00000000000000     
      rotation matrix: 
      nu1 =    1.000000      0.0000000E+00  0.0000000E+00
      nu2 =   0.0000000E+00   1.000000      0.0000000E+00
      nu3 =   0.0000000E+00  0.0000000E+00   1.000000    
      x:    1639615.21568980     
      y:    4245975.75223783     
      depth:   0.000000000000000E+000  m
      z:   0.000000000000000E+000
 
 
 
 station #           25     IR    TEHA
      original latitude:    3974682.    
      original longitude:    1077846.    
      original x:    1077846.    
      original y:    3974682.    
      original depth:   0.0000000E+00  m
      horizontal distance:    795.9709    
      target x, y, z:    1077846.       3974682.      0.0000000E+00
      closest estimate found:   4.6566129E-10  m away
 
      receiver located in slice           10
                       in element        33282
                       in elastic domain
      at coordinates: 
      xi    =  -4.460976056399800E-003
      eta   =   0.573676318270695     
      gamma =    1.00000000000000     
      rotation matrix: 
      nu1 =    1.000000      0.0000000E+00  0.0000000E+00
      nu2 =   0.0000000E+00   1.000000      0.0000000E+00
      nu3 =   0.0000000E+00  0.0000000E+00   1.000000    
      x:    1077846.08726694     
      y:    3974681.62625798     
      depth:   0.000000000000000E+000  m
      z:   0.000000000000000E+000
 
 
 
 station #           26     IR    GHIR
      original latitude:    3154909.    
      original longitude:    1284626.    
      original x:    1284626.    
      original y:    3154909.    
      original depth:   0.0000000E+00  m
      horizontal distance:    511.7429    
      target x, y, z:    1284626.       3154909.      0.0000000E+00
      closest estimate found:   5.2062515E-10  m away
 
      receiver located in slice            6
                       in element        33005
                       in elastic domain
      at coordinates: 
      xi    =  -0.998220193738218     
      eta   =  -0.704833470735208     
      gamma =    1.00000000000000     
      rotation matrix: 
      nu1 =    1.000000      0.0000000E+00  0.0000000E+00
      nu2 =   0.0000000E+00   1.000000      0.0000000E+00
      nu3 =   0.0000000E+00  0.0000000E+00   1.000000    
      x:    1284626.26996789     
      y:    3154908.79552245     
      depth:   0.000000000000000E+000  m
      z:   0.000000000000000E+000
 
 
 
 station #           27     IR    TABS
      original latitude:    3789880.    
      original longitude:    1626980.    
      original x:    1626980.    
      original y:    3789880.    
      original depth:   0.0000000E+00  m
      horizontal distance:    329.5092    
      target x, y, z:    1626980.       3789880.      0.0000000E+00
      closest estimate found:   5.2062515E-10  m away
 
      receiver located in slice           10
                       in element        33022
                       in elastic domain
      at coordinates: 
      xi    =  -0.219410772695925     
      eta   =  -0.199786503182612     
      gamma =    1.00000000000000     
      rotation matrix: 
      nu1 =    1.000000      0.0000000E+00  0.0000000E+00
      nu2 =   0.0000000E+00   1.000000      0.0000000E+00
      nu3 =   0.0000000E+00  0.0000000E+00   1.000000    
      x:    1626980.17520627     
      y:    3789880.35160930     
      depth:   0.000000000000000E+000  m
      z:   0.000000000000000E+000
 
 
 
 station #           28     IR    MND
      original latitude:    4172097.    
      original longitude:    1422818.    
      original x:    1422818.    
      original y:    4172097.    
      original depth:   0.0000000E+00  m
      horizontal distance:    754.6225    
      target x, y, z:    1422818.       4172097.      0.0000000E+00
      closest estimate found:   9.3132257E-10  m away
 
      receiver located in slice           14
                       in element        32596
                       in elastic domain
      at coordinates: 
      xi    =  -0.959720557570126     
      eta   =   0.628548558470766     
      gamma =    1.00000000000000     
      rotation matrix: 
      nu1 =    1.000000      0.0000000E+00  0.0000000E+00
      nu2 =   0.0000000E+00   1.000000      0.0000000E+00
      nu3 =   0.0000000E+00  0.0000000E+00   1.000000    
      x:    1422817.75076142     
      y:    4172096.77487245     
      depth:   0.000000000000000E+000  m
      z:   0.000000000000000E+000
 
 
 
 station #           29     IR    SNQR
      original latitude:    3860424.    
      original longitude:    740252.8    
      original x:    740252.8    
      original y:    3860424.    
      original depth:   0.0000000E+00  m
      horizontal distance:    1028.666    
      target x, y, z:    740252.8       3860424.      0.0000000E+00
      closest estimate found:   4.7999266E-10  m away
 
      receiver located in slice            9
                       in element        33105
                       in elastic domain
      at coordinates: 
      xi    =  -0.299664838010049     
      eta   =   0.966576145707993     
      gamma =    1.00000000000000     
      rotation matrix: 
      nu1 =    1.000000      0.0000000E+00  0.0000000E+00
      nu2 =   0.0000000E+00   1.000000      0.0000000E+00
      nu3 =   0.0000000E+00  0.0000000E+00   1.000000    
      x:    740252.736750839     
      y:    3860424.23393431     
      depth:   0.000000000000000E+000  m
      z:   0.000000000000000E+000
 
 
 
 station #           30     IR    NGRK
      original latitude:    3337543.    
      original longitude:    1639459.    
      original x:    1639459.    
      original y:    3337543.    
      original depth:   0.0000000E+00  m
      horizontal distance:    138.7543    
      target x, y, z:    1639459.       3337543.      0.0000000E+00
      closest estimate found:   2.3283064E-10  m away
 
      receiver located in slice            6
                       in element        33311
                       in elastic domain
      at coordinates: 
      xi    =  -0.951749545340926     
      eta   =  -0.151551578447365     
      gamma =    1.00000000000000     
      rotation matrix: 
      nu1 =    1.000000      0.0000000E+00  0.0000000E+00
      nu2 =   0.0000000E+00   1.000000      0.0000000E+00
      nu3 =   0.0000000E+00  0.0000000E+00   1.000000    
      x:    1639458.71541305     
      y:    3337542.66414966     
      depth:   0.000000000000000E+000  m
      z:   0.000000000000000E+000
 
 
 
 station #           31     IR    HKZM
      original latitude:    3921912.    
      original longitude:    854739.1    
      original x:    854739.1    
      original y:    3921912.    
      original depth:   0.0000000E+00  m
      horizontal distance:    951.7831    
      target x, y, z:    854739.1       3921912.      0.0000000E+00
      closest estimate found:   1.1641532E-10  m away
 
      receiver located in slice            9
                       in element        33239
                       in elastic domain
      at coordinates: 
      xi    =  -0.669301584505390     
      eta   =  -0.787057661036008     
      gamma =    1.00000000000000     
      rotation matrix: 
      nu1 =    1.000000      0.0000000E+00  0.0000000E+00
      nu2 =   0.0000000E+00   1.000000      0.0000000E+00
      nu3 =   0.0000000E+00  0.0000000E+00   1.000000    
      x:    854739.125027525     
      y:    3921911.90114918     
      depth:   0.000000000000000E+000  m
      z:   0.000000000000000E+000
 
 
 
 station #           32     IR    BNDS
      original latitude:    3080771.    
      original longitude:    1608459.    
      original x:    1608459.    
      original y:    3080771.    
      original depth:   0.0000000E+00  m
      horizontal distance:    394.4189    
      target x, y, z:    1608459.       3080771.      0.0000000E+00
      closest estimate found:   2.3283064E-10  m away
 
      receiver located in slice            6
                       in element        32893
                       in elastic domain
      at coordinates: 
      xi    =  -0.100961693458567     
      eta   =  -0.236298639800388     
      gamma =    1.00000000000000     
      rotation matrix: 
      nu1 =    1.000000      0.0000000E+00  0.0000000E+00
      nu2 =   0.0000000E+00   1.000000      0.0000000E+00
      nu3 =   0.0000000E+00  0.0000000E+00   1.000000    
      x:    1608458.65833002     
      y:    3080770.93526446     
      depth:   0.000000000000000E+000  m
      z:   0.000000000000000E+000
 
 
 
 station #           33     IR    ZNGN
      original latitude:    3568492.    
      original longitude:    1052675.    
      original x:    1052675.    
      original y:    3568492.    
      original depth:   0.0000000E+00  m
      horizontal distance:    645.9467    
      target x, y, z:    1052675.       3568492.      0.0000000E+00
      closest estimate found:   0.0000000E+00  m away
 
      receiver located in slice           10
                       in element        32641
                       in elastic domain
      at coordinates: 
      xi    =  -0.561523840988855     
      eta   =  -0.690009759348601     
      gamma =    1.00000000000000     
      rotation matrix: 
      nu1 =    1.000000      0.0000000E+00  0.0000000E+00
      nu2 =   0.0000000E+00   1.000000      0.0000000E+00
      nu3 =   0.0000000E+00  0.0000000E+00   1.000000    
      x:    1052675.04848789     
      y:    3568492.21643141     
      depth:   0.000000000000000E+000  m
      z:   0.000000000000000E+000
 
 
 
 station #           34     IR    QABG
      original latitude:    3961304.    
      original longitude:    914655.4    
      original x:    914655.4    
      original y:    3961304.    
      original depth:   0.0000000E+00  m
      horizontal distance:    920.1915    
      target x, y, z:    914655.4       3961304.      0.0000000E+00
      closest estimate found:   1.1641532E-10  m away
 
      receiver located in slice            9
                       in element        33306
                       in elastic domain
      at coordinates: 
      xi    =  -0.582565917420239     
      eta   =  -0.785369744196974     
      gamma =    1.00000000000000     
      rotation matrix: 
      nu1 =    1.000000      0.0000000E+00  0.0000000E+00
      nu2 =   0.0000000E+00   1.000000      0.0000000E+00
      nu3 =   0.0000000E+00  0.0000000E+00   1.000000    
      x:    914655.429250394     
      y:    3961303.51658056     
      depth:   0.000000000000000E+000  m
      z:   0.000000000000000E+000
 
 
 
 station #           35     IR    TAB1
      original latitude:    4211923.    
      original longitude:    616899.2    
      original x:    616899.2    
      original y:    4211923.    
      original depth:   0.0000000E+00  m
      horizontal distance:    1307.000    
      target x, y, z:    616899.2       4211923.      0.0000000E+00
      closest estimate found:   0.0000000E+00  m away
 
      receiver located in slice           13
                       in element        32651
                       in elastic domain
      at coordinates: 
      xi    =  -0.830810411263553     
      eta   =   0.674373278543228     
      gamma =    1.00000000000000     
      rotation matrix: 
      nu1 =    1.000000      0.0000000E+00  0.0000000E+00
      nu2 =   0.0000000E+00   1.000000      0.0000000E+00
      nu3 =   0.0000000E+00  0.0000000E+00   1.000000    
      x:    616899.272514124     
      y:    4211923.11196066     
      depth:   0.000000000000000E+000  m
      z:   0.000000000000000E+000
 
 
 
 station #           36     IR    NGD1
      original latitude:    4088917.    
      original longitude:    536755.6    
      original x:    536755.6    
      original y:    4088917.    
      original depth:   0.0000000E+00  m
      horizontal distance:    1310.924    
      target x, y, z:    536755.6       4088917.      0.0000000E+00
      closest estimate found:   0.0000000E+00  m away
 
      receiver located in slice            9
                       in element        33479
                       in elastic domain
      at coordinates: 
      xi    =  -0.972393939397839     
      eta   =   0.178550155428194     
      gamma =    1.00000000000000     
      rotation matrix: 
      nu1 =    1.000000      0.0000000E+00  0.0000000E+00
      nu2 =   0.0000000E+00   1.000000      0.0000000E+00
      nu3 =   0.0000000E+00  0.0000000E+00   1.000000    
      x:    536755.559659053     
      y:    4088917.10309250     
      depth:   0.000000000000000E+000  m
      z:   0.000000000000000E+000
 
 
 
 station #           37     IR    SHI
      original latitude:    3302352.    
      original longitude:    1228994.    
      original x:    1228994.    
      original y:    3302352.    
      original depth:   0.0000000E+00  m
      horizontal distance:    489.8750    
      target x, y, z:    1228994.       3302352.      0.0000000E+00
      closest estimate found:   0.0000000E+00  m away
 
      receiver located in slice            6
                       in element        33226
                       in elastic domain
      at coordinates: 
      xi    =  -0.649803248692262     
      eta   =   0.273475738720951     
      gamma =    1.00000000000000     
      rotation matrix: 
      nu1 =    1.000000      0.0000000E+00  0.0000000E+00
      nu2 =   0.0000000E+00   1.000000      0.0000000E+00
      nu3 =   0.0000000E+00  0.0000000E+00   1.000000    
      x:    1228993.49927069     
      y:    3302351.52680303     
      depth:   0.000000000000000E+000  m
      z:   0.000000000000000E+000
 
 
 
 station #           38     IR    TSHB
      original latitude:    3787549.    
      original longitude:    1565557.    
      original x:    1565557.    
      original y:    3787549.    
      original depth:   0.0000000E+00  m
      horizontal distance:    344.4617    
      target x, y, z:    1565557.       3787549.      0.0000000E+00
      closest estimate found:   0.0000000E+00  m away
 
      receiver located in slice           10
                       in element        33019
                       in elastic domain
      at coordinates: 
      xi    =  -0.459256634944412     
      eta   =  -0.436596434450498     
      gamma =    1.00000000000000     
      rotation matrix: 
      nu1 =    1.000000      0.0000000E+00  0.0000000E+00
      nu2 =   0.0000000E+00   1.000000      0.0000000E+00
      nu3 =   0.0000000E+00  0.0000000E+00   1.000000    
      x:    1565556.69249977     
      y:    3787549.25384838     
      depth:   0.000000000000000E+000  m
      z:   0.000000000000000E+000
 
 
 
 station #           39     IR    ASAO
      original latitude:    3834408.    
      original longitude:    961259.1    
      original x:    961259.1    
      original y:    3834408.    
      original depth:   0.0000000E+00  m
      horizontal distance:    816.7910    
      target x, y, z:    961259.1       3834408.      0.0000000E+00
      closest estimate found:   0.0000000E+00  m away
 
      receiver located in slice            9
                       in element        33084
                       in elastic domain
      at coordinates: 
      xi    =   0.151776300211582     
      eta   =   0.323651699715900     
      gamma =    1.00000000000000     
      rotation matrix: 
      nu1 =    1.000000      0.0000000E+00  0.0000000E+00
      nu2 =   0.0000000E+00   1.000000      0.0000000E+00
      nu3 =   0.0000000E+00  0.0000000E+00   1.000000    
      x:    961259.110455208     
      y:    3834407.94641908     
      depth:   0.000000000000000E+000  m
      z:   0.000000000000000E+000
 
 
 
 station #           40     IR    YZKH
      original latitude:    3624424.    
      original longitude:    1403869.    
      original x:    1403869.    
      original y:    3624424.    
      original depth:   0.0000000E+00  m
      horizontal distance:    327.2546    
      target x, y, z:    1403869.       3624424.      0.0000000E+00
      closest estimate found:   0.0000000E+00  m away
 
      receiver located in slice           10
                       in element        32723
                       in elastic domain
      at coordinates: 
      xi    =  -0.884716975550543     
      eta   =   0.991934677553319     
      gamma =    1.00000000000000     
      rotation matrix: 
      nu1 =    1.000000      0.0000000E+00  0.0000000E+00
      nu2 =   0.0000000E+00   1.000000      0.0000000E+00
      nu3 =   0.0000000E+00  0.0000000E+00   1.000000    
      x:    1403868.56727192     
      y:    3624423.85698217     
      depth:   0.000000000000000E+000  m
      z:   0.000000000000000E+000
 
 
 
 station #           41     IR    AMD1
      original latitude:    3972509.    
      original longitude:    1039238.    
      original x:    1039238.    
      original y:    3972509.    
      original depth:   0.0000000E+00  m
      horizontal distance:    824.7220    
      target x, y, z:    1039238.       3972509.      0.0000000E+00
      closest estimate found:   0.0000000E+00  m away
 
      receiver located in slice            9
                       in element        33312
                       in elastic domain
      at coordinates: 
      xi    =   7.343428055878240E-002
      eta   =   0.352994713103978     
      gamma =    1.00000000000000     
      rotation matrix: 
      nu1 =    1.000000      0.0000000E+00  0.0000000E+00
      nu2 =   0.0000000E+00   1.000000      0.0000000E+00
      nu3 =   0.0000000E+00  0.0000000E+00   1.000000    
      x:    1039237.93119925     
      y:    3972509.29170712     
      depth:   0.000000000000000E+000  m
      z:   0.000000000000000E+000
 
 
 
 station #           42     IR    SHK1
      original latitude:    3592046.    
      original longitude:    1054254.    
      original x:    1054254.    
      original y:    3592046.    
      original depth:   0.0000000E+00  m
      horizontal distance:    648.5306    
      target x, y, z:    1054254.       3592046.      0.0000000E+00
      closest estimate found:   4.6566129E-10  m away
 
      receiver located in slice           10
                       in element        32673
                       in elastic domain
      at coordinates: 
      xi    =  -0.401105378049587     
      eta   =  -0.297219411958723     
      gamma =    1.00000000000000     
      rotation matrix: 
      nu1 =    1.000000      0.0000000E+00  0.0000000E+00
      nu2 =   0.0000000E+00   1.000000      0.0000000E+00
      nu3 =   0.0000000E+00  0.0000000E+00   1.000000    
      x:    1054254.16271937     
      y:    3592046.24641353     
      depth:   0.000000000000000E+000  m
      z:   0.000000000000000E+000
 
 
 
 station #           43     IR    DHL1
      original latitude:    3618222.    
      original longitude:    713840.7    
      original x:    713840.7    
      original y:    3618222.    
      original depth:   0.0000000E+00  m
      horizontal distance:    988.3929    
      target x, y, z:    713840.7       3618222.      0.0000000E+00
      closest estimate found:   0.0000000E+00  m away
 
      receiver located in slice            9
                       in element        32720
                       in elastic domain
      at coordinates: 
      xi    =  -0.982793269413414     
      eta   =   0.361936903084098     
      gamma =    1.00000000000000     
      rotation matrix: 
      nu1 =    1.000000      0.0000000E+00  0.0000000E+00
      nu2 =   0.0000000E+00   1.000000      0.0000000E+00
      nu3 =   0.0000000E+00  0.0000000E+00   1.000000    
      x:    713840.691254212     
      y:    3618222.31638973     
      depth:   0.000000000000000E+000  m
      z:   0.000000000000000E+000
 
 
 
 station #           44     IR    AHWZ
      original latitude:    3471899.    
      original longitude:    846760.4    
      original x:    846760.4    
      original y:    3471899.    
      original depth:   0.0000000E+00  m
      horizontal distance:    843.7845    
      target x, y, z:    846760.4       3471899.      0.0000000E+00
      closest estimate found:   4.7999266E-10  m away
 
      receiver located in slice            5
                       in element        33526
                       in elastic domain
      at coordinates: 
      xi    =   0.520165389449817     
      eta   =  -0.502674089154196     
      gamma =    1.00000000000000     
      rotation matrix: 
      nu1 =    1.000000      0.0000000E+00  0.0000000E+00
      nu2 =   0.0000000E+00   1.000000      0.0000000E+00
      nu3 =   0.0000000E+00  0.0000000E+00   1.000000    
      x:    846760.440552397     
      y:    3471898.80193489     
      depth:   0.000000000000000E+000  m
      z:   0.000000000000000E+000
 
 
 
 station #           45     IR    SHRT
      original latitude:    3829747.    
      original longitude:    1924388.    
      original x:    1924388.    
      original y:    3829747.    
      original depth:   0.0000000E+00  m
      horizontal distance:    431.9689    
      target x, y, z:    1924388.       3829747.      0.0000000E+00
      closest estimate found:   4.6566129E-10  m away
 
      receiver located in slice           11
                       in element        33069
                       in elastic domain
      at coordinates: 
      xi    =  -6.578377856905499E-003
      eta   =  -0.149868927245102     
      gamma =    1.00000000000000     
      rotation matrix: 
      nu1 =    1.000000      0.0000000E+00  0.0000000E+00
      nu2 =   0.0000000E+00   1.000000      0.0000000E+00
      nu3 =   0.0000000E+00  0.0000000E+00   1.000000    
      x:    1924387.74409297     
      y:    3829746.72774743     
      depth:   0.000000000000000E+000  m
      z:   0.000000000000000E+000
 
 
 
 station #           46     IR    JHBN
      original latitude:    3580178.    
      original longitude:    1034186.    
      original x:    1034186.    
      original y:    3580178.    
      original depth:   0.0000000E+00  m
      horizontal distance:    666.1040    
      target x, y, z:    1034186.       3580178.      0.0000000E+00
      closest estimate found:   4.7999266E-10  m away
 
      receiver located in slice            9
                       in element        32672
                       in elastic domain
      at coordinates: 
      xi    =  -0.439786921864598     
      eta   =   0.497070171391035     
      gamma =    1.00000000000000     
      rotation matrix: 
      nu1 =    1.000000      0.0000000E+00  0.0000000E+00
      nu2 =   0.0000000E+00   1.000000      0.0000000E+00
      nu3 =   0.0000000E+00  0.0000000E+00   1.000000    
      x:    1034185.90998790     
      y:    3580177.53449963     
      depth:   0.000000000000000E+000  m
      z:   0.000000000000000E+000
 
 
 
 station #           47     IR    QJF1
      original latitude:    3861670.    
      original longitude:    1004191.    
      original x:    1004191.    
      original y:    3861670.    
      original depth:   0.0000000E+00  m
      horizontal distance:    791.9423    
      target x, y, z:    1004191.       3861670.      0.0000000E+00
      closest estimate found:   0.0000000E+00  m away
 
      receiver located in slice            9
                       in element        33150
                       in elastic domain
      at coordinates: 
      xi    =   0.513127891182609     
      eta   =  -0.906864300743173     
      gamma =    1.00000000000000     
      rotation matrix: 
      nu1 =    1.000000      0.0000000E+00  0.0000000E+00
      nu2 =   0.0000000E+00   1.000000      0.0000000E+00
      nu3 =   0.0000000E+00  0.0000000E+00   1.000000    
      x:    1004191.16517883     
      y:    3861670.05453956     
      depth:   0.000000000000000E+000  m
      z:   0.000000000000000E+000
 
 
 
 station #           48     IR    NASN
      original latitude:    3656124.    
      original longitude:    1231980.    
      original x:    1231980.    
      original y:    3656124.    
      original depth:   0.0000000E+00  m
      horizontal distance:    496.1873    
      target x, y, z:    1231980.       3656124.      0.0000000E+00
      closest estimate found:   5.2062515E-10  m away
 
      receiver located in slice           10
                       in element        32778
                       in elastic domain
      at coordinates: 
      xi    =  -0.346403243511223     
      eta   =   0.212260737962614     
      gamma =    1.00000000000000     
      rotation matrix: 
      nu1 =    1.000000      0.0000000E+00  0.0000000E+00
      nu2 =   0.0000000E+00   1.000000      0.0000000E+00
      nu3 =   0.0000000E+00  0.0000000E+00   1.000000    
      x:    1231980.09307169     
      y:    3656123.94163932     
      depth:   0.000000000000000E+000  m
      z:   0.000000000000000E+000
 
 
 
 station #           49     IR    BNB
      original latitude:    3089790.    
      original longitude:    1644830.    
      original x:    1644830.    
      original y:    3089790.    
      original depth:   0.0000000E+00  m
      horizontal distance:    379.5288    
      target x, y, z:    1644830.       3089790.      0.0000000E+00
      closest estimate found:   5.2062515E-10  m away
 
      receiver located in slice            6
                       in element        32895
                       in elastic domain
      at coordinates: 
      xi    =  -0.406114527502981     
      eta   =   0.679868724209182     
      gamma =    1.00000000000000     
      rotation matrix: 
      nu1 =    1.000000      0.0000000E+00  0.0000000E+00
      nu2 =   0.0000000E+00   1.000000      0.0000000E+00
      nu3 =   0.0000000E+00  0.0000000E+00   1.000000    
      x:    1644829.81011989     
      y:    3089789.45775393     
      depth:   0.000000000000000E+000  m
      z:   0.000000000000000E+000
 
 
 
 station #           50     IR    KHMZ
      original latitude:    3744302.    
      original longitude:    960033.8    
      original x:    960033.8    
      original y:    3744302.    
      original depth:   0.0000000E+00  m
      horizontal distance:    781.5141    
      target x, y, z:    960033.8       3744302.      0.0000000E+00
      closest estimate found:   0.0000000E+00  m away
 
      receiver located in slice            9
                       in element        32956
                       in elastic domain
      at coordinates: 
      xi    =   2.729937350771257E-002
      eta   =  -0.829920764906302     
      gamma =    1.00000000000000     
      rotation matrix: 
      nu1 =    1.000000      0.0000000E+00  0.0000000E+00
      nu2 =   0.0000000E+00   1.000000      0.0000000E+00
      nu3 =   0.0000000E+00  0.0000000E+00   1.000000    
      x:    960033.790707967     
      y:    3744302.46747045     
      depth:   0.000000000000000E+000  m
      z:   0.000000000000000E+000
 
 
 
 station #           51     IR    KCHF
      original latitude:    3794532.    
      original longitude:    687831.9    
      original x:    687831.9    
      original y:    3794532.    
      original depth:   0.0000000E+00  m
      horizontal distance:    1054.973    
      target x, y, z:    687831.9       3794532.      0.0000000E+00
      closest estimate found:   4.6566129E-10  m away
 
      receiver located in slice            9
                       in element        33006
                       in elastic domain
      at coordinates: 
      xi    =   0.375040748013609     
      eta   =   0.272794878553351     
      gamma =    1.00000000000000     
      rotation matrix: 
      nu1 =    1.000000      0.0000000E+00  0.0000000E+00
      nu2 =   0.0000000E+00   1.000000      0.0000000E+00
      nu3 =   0.0000000E+00  0.0000000E+00   1.000000    
      x:    687831.869863259     
      y:    3794532.32458576     
      depth:   0.000000000000000E+000  m
      z:   0.000000000000000E+000
 
 
 
 station #           52     IR    THKV
      original latitude:    3990636.    
      original longitude:    1030714.    
      original x:    1030714.    
      original y:    3990636.    
      original depth:   0.0000000E+00  m
      horizontal distance:    842.6233    
      target x, y, z:    1030714.       3990636.      0.0000000E+00
      closest estimate found:   4.7999266E-10  m away
 
      receiver located in slice            9
                       in element        33344
                       in elastic domain
      at coordinates: 
      xi    =  -0.792525226685138     
      eta   =   0.194456412242807     
      gamma =    1.00000000000000     
      rotation matrix: 
      nu1 =    1.000000      0.0000000E+00  0.0000000E+00
      nu2 =   0.0000000E+00   1.000000      0.0000000E+00
      nu3 =   0.0000000E+00  0.0000000E+00   1.000000    
      x:    1030713.64229982     
      y:    3990636.18030802     
      depth:   0.000000000000000E+000  m
      z:   0.000000000000000E+000
 
 
 
 station #           53     IR    ZHDN
      original latitude:    3358492.    
      original longitude:    2044089.    
      original x:    2044089.    
      original y:    3358492.    
      original depth:   0.0000000E+00  m
      horizontal distance:    369.7072    
      target x, y, z:    2044089.       3358492.      0.0000000E+00
      closest estimate found:   2.3283064E-10  m away
 
      receiver located in slice            7
                       in element        33331
                       in elastic domain
      at coordinates: 
      xi    =   0.153547614110793     
      eta   =  -2.336409065363899E-002
      gamma =    1.00000000000000     
      rotation matrix: 
      nu1 =    1.000000      0.0000000E+00  0.0000000E+00
      nu2 =   0.0000000E+00   1.000000      0.0000000E+00
      nu3 =   0.0000000E+00  0.0000000E+00   1.000000    
      x:    2044088.98432640     
      y:    3358492.00973263     
      depth:   0.000000000000000E+000  m
      z:   0.000000000000000E+000
 
 
 
 station #           54     IR    LHJ2
      original latitude:    4125346.    
      original longitude:    949536.9    
      original x:    949536.9    
      original y:    4125346.    
      original depth:   0.0000000E+00  m
      horizontal distance:    991.4991    
      target x, y, z:    949536.9       4125346.      0.0000000E+00
      closest estimate found:   0.0000000E+00  m away
 
      receiver located in slice           13
                       in element        32539
                       in elastic domain
      at coordinates: 
      xi    =   0.960950783064772     
      eta   =  -0.120755981927353     
      gamma =    1.00000000000000     
      rotation matrix: 
      nu1 =    1.000000      0.0000000E+00  0.0000000E+00
      nu2 =   0.0000000E+00   1.000000      0.0000000E+00
      nu3 =   0.0000000E+00  0.0000000E+00   1.000000    
      x:    949536.921770794     
      y:    4125345.80830290     
      depth:   0.000000000000000E+000  m
      z:   0.000000000000000E+000
 
 
 
 station #           55     IR    KRBR
      original latitude:    3375709.    
      original longitude:    1638535.    
      original x:    1638535.    
      original y:    3375709.    
      original depth:   0.0000000E+00  m
      horizontal distance:    104.6740    
      target x, y, z:    1638535.       3375709.      0.0000000E+00
      closest estimate found:   5.2062515E-10  m away
 
      receiver located in slice            6
                       in element        33374
                       in elastic domain
      at coordinates: 
      xi    =   0.954401078772781     
      eta   =  -0.274337255571664     
      gamma =    1.00000000000000     
      rotation matrix: 
      nu1 =    1.000000      0.0000000E+00  0.0000000E+00
      nu2 =   0.0000000E+00   1.000000      0.0000000E+00
      nu3 =   0.0000000E+00  0.0000000E+00   1.000000    
      x:    1638534.88561917     
      y:    3375708.99264047     
      depth:   0.000000000000000E+000  m
      z:   0.000000000000000E+000
 
 
 
 station #           56     IR    ZRDN
      original latitude:    3483733.    
      original longitude:    1605148.    
      original x:    1605148.    
      original y:    3483733.    
      original depth:   0.0000000E+00  m
      horizontal distance:    87.09020    
      target x, y, z:    1605148.       3483733.      0.0000000E+00
      closest estimate found:   5.2062515E-10  m away
 
      receiver located in slice            6
                       in element        33533
                       in elastic domain
      at coordinates: 
      xi    =  -0.437255087867797     
      eta   =   0.699502023036771     
      gamma =    1.00000000000000     
      rotation matrix: 
      nu1 =    1.000000      0.0000000E+00  0.0000000E+00
      nu2 =   0.0000000E+00   1.000000      0.0000000E+00
      nu3 =   0.0000000E+00  0.0000000E+00   1.000000    
      x:    1605148.27022880     
      y:    3483732.72303927     
      depth:   0.000000000000000E+000  m
      z:   0.000000000000000E+000
 
 
 
 station #           57     IR    TVRZ
      original latitude:    4263077.    
      original longitude:    645398.7    
      original x:    645398.7    
      original y:    4263077.    
      original depth:   0.0000000E+00  m
      horizontal distance:    1314.055    
      target x, y, z:    645398.7       4263077.      0.0000000E+00
      closest estimate found:   0.0000000E+00  m away
 
      receiver located in slice           13
                       in element        32748
                       in elastic domain
      at coordinates: 
      xi    =   6.436685091815297E-002
      eta   =  -0.129050503367659     
      gamma =    1.00000000000000     
      rotation matrix: 
      nu1 =    1.000000      0.0000000E+00  0.0000000E+00
      nu2 =   0.0000000E+00   1.000000      0.0000000E+00
      nu3 =   0.0000000E+00  0.0000000E+00   1.000000    
      x:    645398.673688726     
      y:    4263076.90910747     
      depth:   0.000000000000000E+000  m
      z:   0.000000000000000E+000
 
 
 
 station #           58     IR    ZHSF
      original latitude:    3381958.    
      original longitude:    2037274.    
      original x:    2037274.    
      original y:    3381958.    
      original depth:   0.0000000E+00  m
      horizontal distance:    356.9174    
      target x, y, z:    2037274.       3381958.      0.0000000E+00
      closest estimate found:   2.3283064E-10  m away
 
      receiver located in slice            7
                       in element        33363
                       in elastic domain
      at coordinates: 
      xi    =  -0.538723616875441     
      eta   =   0.360505907531225     
      gamma =    1.00000000000000     
      rotation matrix: 
      nu1 =    1.000000      0.0000000E+00  0.0000000E+00
      nu2 =   0.0000000E+00   1.000000      0.0000000E+00
      nu3 =   0.0000000E+00  0.0000000E+00   1.000000    
      x:    2037274.43939638     
      y:    3381958.23002726     
      depth:   0.000000000000000E+000  m
      z:   0.000000000000000E+000
 
 
 
 station #           59     IR    AMIS
      original latitude:    3511328.    
      original longitude:    906528.6    
      original x:    906528.6    
      original y:    3511328.    
      original depth:   0.0000000E+00  m
      horizontal distance:    785.2767    
      target x, y, z:    906528.6       3511328.      0.0000000E+00
      closest estimate found:   0.0000000E+00  m away
 
      receiver located in slice            9
                       in element        32569
                       in elastic domain
      at coordinates: 
      xi    =   0.591853382102500     
      eta   =  -0.497191898656098     
      gamma =    1.00000000000000     
      rotation matrix: 
      nu1 =    1.000000      0.0000000E+00  0.0000000E+00
      nu2 =   0.0000000E+00   1.000000      0.0000000E+00
      nu3 =   0.0000000E+00  0.0000000E+00   1.000000    
      x:    906528.619230072     
      y:    3511327.76724760     
      depth:   0.000000000000000E+000  m
      z:   0.000000000000000E+000
 
 
 
 station #           60     IR    TBJM
      original latitude:    4012411.    
      original longitude:    1899728.    
      original x:    1899728.    
      original y:    4012411.    
      original depth:   0.0000000E+00  m
      horizontal distance:    584.5689    
      target x, y, z:    1899728.       4012411.      0.0000000E+00
      closest estimate found:   5.2062515E-10  m away
 
      receiver located in slice           11
                       in element        33356
                       in elastic domain
      at coordinates: 
      xi    =  -0.511730594812422     
      eta   =   0.406477758785863     
      gamma =    1.00000000000000     
      rotation matrix: 
      nu1 =    1.000000      0.0000000E+00  0.0000000E+00
      nu2 =   0.0000000E+00   1.000000      0.0000000E+00
      nu3 =   0.0000000E+00  0.0000000E+00   1.000000    
      x:    1899727.65195732     
      y:    4012410.76543805     
      depth:   0.000000000000000E+000  m
      z:   0.000000000000000E+000
 
 
 
 station #           61     IR    JIR1
      original latitude:    4073209.    
      original longitude:    929046.4    
      original x:    929046.4    
      original y:    4073209.    
      original depth:   0.0000000E+00  m
      horizontal distance:    973.5917    
      target x, y, z:    929046.4       4073209.      0.0000000E+00
      closest estimate found:   0.0000000E+00  m away
 
      receiver located in slice            9
                       in element        33466
                       in elastic domain
      at coordinates: 
      xi    =   0.879374105728429     
      eta   =   0.582792338011206     
      gamma =    1.00000000000000     
      rotation matrix: 
      nu1 =    1.000000      0.0000000E+00  0.0000000E+00
      nu2 =   0.0000000E+00   1.000000      0.0000000E+00
      nu3 =   0.0000000E+00  0.0000000E+00   1.000000    
      x:    929046.401353264     
      y:    4073208.86207730     
      depth:   0.000000000000000E+000  m
      z:   0.000000000000000E+000
 
 
 
 station #           62     IR    SRVN
      original latitude:    3154865.    
      original longitude:    2235312.    
      original x:    2235312.    
      original y:    3154865.    
      original depth:   0.0000000E+00  m
      horizontal distance:    627.6479    
      target x, y, z:    2235312.       3154865.      0.0000000E+00
      closest estimate found:   0.0000000E+00  m away
 
      receiver located in slice            7
                       in element        33021
                       in elastic domain
      at coordinates: 
      xi    =  -0.420564942740465     
      eta   =  -0.709248379511130     
      gamma =    1.00000000000000     
      rotation matrix: 
      nu1 =    1.000000      0.0000000E+00  0.0000000E+00
      nu2 =   0.0000000E+00   1.000000      0.0000000E+00
      nu3 =   0.0000000E+00  0.0000000E+00   1.000000    
      x:    2235312.56384490     
      y:    3154865.33626419     
      depth:   0.000000000000000E+000  m
      z:   0.000000000000000E+000
 
 
 
 station #           63     IR    KHL1
      original latitude:    3084798.    
      original longitude:    1320502.    
      original x:    1320502.    
      original y:    3084798.    
      original depth:   0.0000000E+00  m
      horizontal distance:    531.6576    
      target x, y, z:    1320502.       3084798.      0.0000000E+00
      closest estimate found:   0.0000000E+00  m away
 
      receiver located in slice            6
                       in element        32878
                       in elastic domain
      at coordinates: 
      xi    =   0.646266391877516     
      eta   =   0.172752358690805     
      gamma =    1.00000000000000     
      rotation matrix: 
      nu1 =    1.000000      0.0000000E+00  0.0000000E+00
      nu2 =   0.0000000E+00   1.000000      0.0000000E+00
      nu3 =   0.0000000E+00  0.0000000E+00   1.000000    
      x:    1320501.68479504     
      y:    3084797.53103086     
      depth:   0.000000000000000E+000  m
      z:   0.000000000000000E+000
 
 
 
 station #           64     IR    SRSL
      original latitude:    4007583.    
      original longitude:    539010.4    
      original x:    539010.4    
      original y:    4007583.    
      original depth:   0.0000000E+00  m
      horizontal distance:    1272.282    
      target x, y, z:    539010.4       4007583.      0.0000000E+00
      closest estimate found:   4.7999266E-10  m away
 
      receiver located in slice            9
                       in element        33351
                       in elastic domain
      at coordinates: 
      xi    =  -0.743331460705369     
      eta   =  -8.392827935162045E-002
      gamma =    1.00000000000000     
      rotation matrix: 
      nu1 =    1.000000      0.0000000E+00  0.0000000E+00
      nu2 =   0.0000000E+00   1.000000      0.0000000E+00
      nu3 =   0.0000000E+00  0.0000000E+00   1.000000    
      x:    539010.393433681     
      y:    4007583.33100013     
      depth:   0.000000000000000E+000  m
      z:   0.000000000000000E+000
 
 
 
 station #           65     IR    KRSH
      original latitude:    3781780.    
      original longitude:    1159819.    
      original x:    1159819.    
      original y:    3781780.    
      original depth:   0.0000000E+00  m
      horizontal distance:    617.2661    
      target x, y, z:    1159819.       3781780.      0.0000000E+00
      closest estimate found:   4.6566129E-10  m away
 
      receiver located in slice           10
                       in element        32966
                       in elastic domain
      at coordinates: 
      xi    =   0.322955927024522     
      eta   =   0.977309462853225     
      gamma =    1.00000000000000     
      rotation matrix: 
      nu1 =    1.000000      0.0000000E+00  0.0000000E+00
      nu2 =   0.0000000E+00   1.000000      0.0000000E+00
      nu3 =   0.0000000E+00  0.0000000E+00   1.000000    
      x:    1159819.09740665     
      y:    3781779.89002496     
      depth:   0.000000000000000E+000  m
      z:   0.000000000000000E+000
 
 
 
 station #           66     IR    MZN1
      original latitude:    3141602.    
      original longitude:    1450984.    
      original x:    1450984.    
      original y:    3141602.    
      original depth:   0.0000000E+00  m
      horizontal distance:    403.7039    
      target x, y, z:    1450984.       3141602.      0.0000000E+00
      closest estimate found:   5.2062515E-10  m away
 
      receiver located in slice            6
                       in element        32981
                       in elastic domain
      at coordinates: 
      xi    =  -9.835275895959801E-002
      eta   =  -5.661979268391927E-002
      gamma =    1.00000000000000     
      rotation matrix: 
      nu1 =    1.000000      0.0000000E+00  0.0000000E+00
      nu2 =   0.0000000E+00   1.000000      0.0000000E+00
      nu3 =   0.0000000E+00  0.0000000E+00   1.000000    
      x:    1450984.34002899     
      y:    3141602.14891577     
      depth:   0.000000000000000E+000  m
      z:   0.000000000000000E+000
 
 
 
 station #           67     IR    CMGT
      original latitude:    3974429.    
      original longitude:    1077735.    
      original x:    1077735.    
      original y:    3974429.    
      original depth:   0.0000000E+00  m
      horizontal distance:    795.8952    
      target x, y, z:    1077735.       3974429.      0.0000000E+00
      closest estimate found:   0.0000000E+00  m away
 
      receiver located in slice           10
                       in element        33282
                       in elastic domain
      at coordinates: 
      xi    =  -1.572392390214261E-002
      eta   =   0.548031190798650     
      gamma =    1.00000000000000     
      rotation matrix: 
      nu1 =    1.000000      0.0000000E+00  0.0000000E+00
      nu2 =   0.0000000E+00   1.000000      0.0000000E+00
      nu3 =   0.0000000E+00  0.0000000E+00   1.000000    
      x:    1077735.21762409     
      y:    3974429.18203442     
      depth:   0.000000000000000E+000  m
      z:   0.000000000000000E+000
 
 
 
 station #           68     IR    SZD1
      original latitude:    3369120.    
      original longitude:    2048183.    
      original x:    2048183.    
      original y:    3369120.    
      original depth:   0.0000000E+00  m
      horizontal distance:    370.6903    
      target x, y, z:    2048183.       3369120.      0.0000000E+00
      closest estimate found:   5.2062515E-10  m away
 
      receiver located in slice            7
                       in element        33363
                       in elastic domain
      at coordinates: 
      xi    =   0.569486215217452     
      eta   =  -0.943682468949709     
      gamma =    1.00000000000000     
      rotation matrix: 
      nu1 =    1.000000      0.0000000E+00  0.0000000E+00
      nu2 =   0.0000000E+00   1.000000      0.0000000E+00
      nu3 =   0.0000000E+00  0.0000000E+00   1.000000    
      x:    2048183.37993105     
      y:    3369120.12569628     
      depth:   0.000000000000000E+000  m
      z:   0.000000000000000E+000
 
 
 
 station #           69     IR    KBAM
      original latitude:    3299058.    
      original longitude:    1814898.    
      original x:    1814898.    
      original y:    3299058.    
      original depth:   0.0000000E+00  m
      horizontal distance:    208.6235    
      target x, y, z:    1814898.       3299058.      0.0000000E+00
      closest estimate found:   2.3283064E-10  m away
 
      receiver located in slice            7
                       in element        33223
                       in elastic domain
      at coordinates: 
      xi    =   0.870623543756538     
      eta   =  -6.111369317505095E-002
      gamma =    1.00000000000000     
      rotation matrix: 
      nu1 =    1.000000      0.0000000E+00  0.0000000E+00
      nu2 =   0.0000000E+00   1.000000      0.0000000E+00
      nu3 =   0.0000000E+00  0.0000000E+00   1.000000    
      x:    1814897.70050885     
      y:    3299057.91208281     
      depth:   0.000000000000000E+000  m
      z:   0.000000000000000E+000
 
 
 
 station #           70     IR    TPRV
      original latitude:    3715748.    
      original longitude:    1594368.    
      original x:    1594368.    
      original y:    3715748.    
      original depth:   0.0000000E+00  m
      horizontal distance:    267.1004    
      target x, y, z:    1594368.       3715748.      0.0000000E+00
      closest estimate found:   0.0000000E+00  m away
 
      receiver located in slice           10
                       in element        32892
                       in elastic domain
      at coordinates: 
      xi    =   0.467641667718162     
      eta   =   0.269268378445080     
      gamma =    1.00000000000000     
      rotation matrix: 
      nu1 =    1.000000      0.0000000E+00  0.0000000E+00
      nu2 =   0.0000000E+00   1.000000      0.0000000E+00
      nu3 =   0.0000000E+00  0.0000000E+00   1.000000    
      x:    1594368.34766660     
      y:    3715747.61060032     
      depth:   0.000000000000000E+000  m
      z:   0.000000000000000E+000
 
 
 
 station #           71     IR    DOBD
      original latitude:    3579178.    
      original longitude:    1400354.    
      original x:    1400354.    
      original y:    3579178.    
      original depth:   0.0000000E+00  m
      horizontal distance:    311.2629    
      target x, y, z:    1400354.       3579178.      0.0000000E+00
      closest estimate found:   5.2062515E-10  m away
 
      receiver located in slice           10
                       in element        32658
                       in elastic domain
      at coordinates: 
      xi    =   0.758246729721028     
      eta   =   0.395591758365544     
      gamma =    1.00000000000000     
      rotation matrix: 
      nu1 =    1.000000      0.0000000E+00  0.0000000E+00
      nu2 =   0.0000000E+00   1.000000      0.0000000E+00
      nu3 =   0.0000000E+00  0.0000000E+00   1.000000    
      x:    1400353.99124569     
      y:    3579178.60637141     
      depth:   0.000000000000000E+000  m
      z:   0.000000000000000E+000
 
 
 
 station #           72     IR    QCNT
      original latitude:    4027785.    
      original longitude:    949971.9    
      original x:    949971.9    
      original y:    4027785.    
      original depth:   0.0000000E+00  m
      horizontal distance:    929.1931    
      target x, y, z:    949971.9       4027785.      0.0000000E+00
      closest estimate found:   4.7999266E-10  m away
 
      receiver located in slice            9
                       in element        33404
                       in elastic domain
      at coordinates: 
      xi    =  -0.994855766775625     
      eta   =  -3.173202591358670E-002
      gamma =    1.00000000000000     
      rotation matrix: 
      nu1 =    1.000000      0.0000000E+00  0.0000000E+00
      nu2 =   0.0000000E+00   1.000000      0.0000000E+00
      nu3 =   0.0000000E+00  0.0000000E+00   1.000000    
      x:    949971.951045803     
      y:    4027784.63786991     
      depth:   0.000000000000000E+000  m
      z:   0.000000000000000E+000
 
 
 
 station #           73     IR    KMR
      original latitude:    3713811.    
      original longitude:    813987.7    
      original x:    813987.7    
      original y:    3713811.    
      original depth:   0.0000000E+00  m
      horizontal distance:    910.7455    
      target x, y, z:    813987.7       3713811.      0.0000000E+00
      closest estimate found:   0.0000000E+00  m away
 
      receiver located in slice            9
[...]
 Estimated remaining time in hh:mm:ss =      0 h 16 m 07 s
 Estimated total run time in seconds =    10977.67    
 Estimated total run time in hh:mm:ss =      3 h 02 m 57 s
 We have done    91.19048     % of that
 The run will finish approximately on (in local time): Thu Sep 07, 2023 02:45
 
 Time step #        38400
 Time:    381.3900      seconds
 Elapsed time in seconds =    10038.8105446709     
 Elapsed time in hh:mm:ss =      2 h 47 m 18 s
 Mean elapsed time per time step in seconds =   0.2614274    
 Max norm displacement vector U in all slices (m) =   0.5267689    
 Time steps done =        38400  out of        42000
 Time steps remaining =         3600
 Estimated remaining time in seconds =    941.1385    
 Estimated remaining time in hh:mm:ss =      0 h 15 m 41 s
 Estimated total run time in seconds =    10979.95    
 Estimated total run time in hh:mm:ss =      3 h 02 m 59 s
 We have done    91.42857     % of that
 The run will finish approximately on (in local time): Thu Sep 07, 2023 02:46
 
 Time step #        38500
 Time:    382.3900      seconds
 Elapsed time in seconds =    10066.9835239245     
 Elapsed time in hh:mm:ss =      2 h 47 m 46 s
 Mean elapsed time per time step in seconds =   0.2614801    
 Max norm displacement vector U in all slices (m) =   0.5264912    
 Time steps done =        38500  out of        42000
 Time steps remaining =         3500
 Estimated remaining time in seconds =    915.1803    
 Estimated remaining time in hh:mm:ss =      0 h 15 m 15 s
 Estimated total run time in seconds =    10982.16    
 Estimated total run time in hh:mm:ss =      3 h 03 m 02 s
 We have done    91.66666     % of that
 The run will finish approximately on (in local time): Thu Sep 07, 2023 02:45
 
 Time step #        38600
 Time:    383.3900      seconds
 Elapsed time in seconds =    10094.7548211227     
 Elapsed time in hh:mm:ss =      2 h 48 m 14 s
 Mean elapsed time per time step in seconds =   0.2615221    
 Max norm displacement vector U in all slices (m) =   0.5268098    
 Time steps done =        38600  out of        42000
 Time steps remaining =         3400
 Estimated remaining time in seconds =    889.1753    
 Estimated remaining time in hh:mm:ss =      0 h 14 m 49 s
 Estimated total run time in seconds =    10983.93    
 Estimated total run time in hh:mm:ss =      3 h 03 m 03 s
 We have done    91.90476     % of that
 The run will finish approximately on (in local time): Thu Sep 07, 2023 02:46
 
 Time step #        38700
 Time:    384.3900      seconds
 Elapsed time in seconds =    10121.7530786555     
 Elapsed time in hh:mm:ss =      2 h 48 m 41 s
 Mean elapsed time per time step in seconds =   0.2615440    
 Max norm displacement vector U in all slices (m) =   0.5266735    
 Time steps done =        38700  out of        42000
 Time steps remaining =         3300
 Estimated remaining time in seconds =    863.0952    
 Estimated remaining time in hh:mm:ss =      0 h 14 m 23 s
 Estimated total run time in seconds =    10984.85    
 Estimated total run time in hh:mm:ss =      3 h 03 m 04 s
 We have done    92.14286     % of that
 The run will finish approximately on (in local time): Thu Sep 07, 2023 02:45
 
 Time step #        38800
 Time:    385.3900      seconds
 Elapsed time in seconds =    10148.5756860354     
 Elapsed time in hh:mm:ss =      2 h 49 m 08 s
 Mean elapsed time per time step in seconds =   0.2615612    
 Max norm displacement vector U in all slices (m) =   0.5265198    
 Time steps done =        38800  out of        42000
 Time steps remaining =         3200
 Estimated remaining time in seconds =    836.9959    
 Estimated remaining time in hh:mm:ss =      0 h 13 m 56 s
 Estimated total run time in seconds =    10985.57    
 Estimated total run time in hh:mm:ss =      3 h 03 m 05 s
 We have done    92.38095     % of that
 The run will finish approximately on (in local time): Thu Sep 07, 2023 02:46
 
 Time step #        38900
 Time:    386.3900      seconds
 Elapsed time in seconds =    10175.5021023045     
 Elapsed time in hh:mm:ss =      2 h 49 m 35 s
 Mean elapsed time per time step in seconds =   0.2615810    
 Max norm displacement vector U in all slices (m) =   0.5267087    
 Time steps done =        38900  out of        42000
 Time steps remaining =         3100
 Estimated remaining time in seconds =    810.9012    
 Estimated remaining time in hh:mm:ss =      0 h 13 m 30 s
 Estimated total run time in seconds =    10986.40    
 Estimated total run time in hh:mm:ss =      3 h 03 m 06 s
 We have done    92.61905     % of that
 The run will finish approximately on (in local time): Thu Sep 07, 2023 02:46
 
 Time step #        39000
 Time:    387.3900      seconds
 Elapsed time in seconds =    10202.8181206918     
 Elapsed time in hh:mm:ss =      2 h 50 m 02 s
 Mean elapsed time per time step in seconds =   0.2616107    
 Max norm displacement vector U in all slices (m) =   0.5264628    
 Time steps done =        39000  out of        42000
 Time steps remaining =         3000
 Estimated remaining time in seconds =    784.8322    
 Estimated remaining time in hh:mm:ss =      0 h 13 m 04 s
 Estimated total run time in seconds =    10987.65    
 Estimated total run time in hh:mm:ss =      3 h 03 m 07 s
 We have done    92.85714     % of that
 The run will finish approximately on (in local time): Thu Sep 07, 2023 02:45
 
 Time step #        39100
 Time:    388.3900      seconds
 Elapsed time in seconds =    10230.4334203927     
 Elapsed time in hh:mm:ss =      2 h 50 m 30 s
 Mean elapsed time per time step in seconds =   0.2616479    
 Max norm displacement vector U in all slices (m) =   0.5267069    
 Time steps done =        39100  out of        42000
 Time steps remaining =         2900
 Estimated remaining time in seconds =    758.7789    
 Estimated remaining time in hh:mm:ss =      0 h 12 m 38 s
 Estimated total run time in seconds =    10989.21    
 Estimated total run time in hh:mm:ss =      3 h 03 m 09 s
 We have done    93.09524     % of that
 The run will finish approximately on (in local time): Thu Sep 07, 2023 02:46
 
 Time step #        39200
 Time:    389.3900      seconds
 Elapsed time in seconds =    10258.1103154500     
 Elapsed time in hh:mm:ss =      2 h 50 m 58 s
 Mean elapsed time per time step in seconds =   0.2616865    
 Max norm displacement vector U in all slices (m) =   0.5268019    
 Time steps done =        39200  out of        42000
 Time steps remaining =         2800
 Estimated remaining time in seconds =    732.7222    
 Estimated remaining time in hh:mm:ss =      0 h 12 m 12 s
 Estimated total run time in seconds =    10990.83    
 Estimated total run time in hh:mm:ss =      3 h 03 m 10 s
 We have done    93.33334     % of that
 The run will finish approximately on (in local time): Thu Sep 07, 2023 02:45
 
 Time step #        39300
 Time:    390.3900      seconds
 Elapsed time in seconds =    10285.6623634218     
 Elapsed time in hh:mm:ss =      2 h 51 m 25 s
 Mean elapsed time per time step in seconds =   0.2617217    
 Max norm displacement vector U in all slices (m) =   0.5264755    
 Time steps done =        39300  out of        42000
 Time steps remaining =         2700
 Estimated remaining time in seconds =    706.6486    
 Estimated remaining time in hh:mm:ss =      0 h 11 m 46 s
 Estimated total run time in seconds =    10992.31    
 Estimated total run time in hh:mm:ss =      3 h 03 m 12 s
 We have done    93.57143     % of that
 The run will finish approximately on (in local time): Thu Sep 07, 2023 02:46
 
 Time step #        39400
 Time:    391.3900      seconds
 Elapsed time in seconds =    10312.4524636599     
 Elapsed time in hh:mm:ss =      2 h 51 m 52 s
 Mean elapsed time per time step in seconds =   0.2617374    
 Max norm displacement vector U in all slices (m) =   0.5267609    
 Time steps done =        39400  out of        42000
 Time steps remaining =         2600
 Estimated remaining time in seconds =    680.5172    
 Estimated remaining time in hh:mm:ss =      0 h 11 m 20 s
 Estimated total run time in seconds =    10992.97    
 Estimated total run time in hh:mm:ss =      3 h 03 m 12 s
 We have done    93.80952     % of that
 The run will finish approximately on (in local time): Thu Sep 07, 2023 02:45
 
 Time step #        39500
 Time:    392.3900      seconds
 Elapsed time in seconds =    10339.1608894982     
 Elapsed time in hh:mm:ss =      2 h 52 m 19 s
 Mean elapsed time per time step in seconds =   0.2617509    
 Max norm displacement vector U in all slices (m) =   0.5264433    
 Time steps done =        39500  out of        42000
 Time steps remaining =         2500
 Estimated remaining time in seconds =    654.3773    
 Estimated remaining time in hh:mm:ss =      0 h 10 m 54 s
 Estimated total run time in seconds =    10993.54    
 Estimated total run time in hh:mm:ss =      3 h 03 m 13 s
 We have done    94.04762     % of that
 The run will finish approximately on (in local time): Thu Sep 07, 2023 02:46
 
 Time step #        39600
 Time:    393.3900      seconds
 Elapsed time in seconds =    10366.0015067682     
 Elapsed time in hh:mm:ss =      2 h 52 m 46 s
 Mean elapsed time per time step in seconds =   0.2617677    
 Max norm displacement vector U in all slices (m) =   0.5266488    
 Time steps done =        39600  out of        42000
 Time steps remaining =         2400
 Estimated remaining time in seconds =    628.2425    
 Estimated remaining time in hh:mm:ss =      0 h 10 m 28 s
 Estimated total run time in seconds =    10994.24    
 Estimated total run time in hh:mm:ss =      3 h 03 m 14 s
 We have done    94.28571     % of that
 The run will finish approximately on (in local time): Thu Sep 07, 2023 02:45
 
 Time step #        39700
 Time:    394.3900      seconds
 Elapsed time in seconds =    10393.6655099081     
 Elapsed time in hh:mm:ss =      2 h 53 m 13 s
 Mean elapsed time per time step in seconds =   0.2618052    
 Max norm displacement vector U in all slices (m) =   0.5267489    
 Time steps done =        39700  out of        42000
 Time steps remaining =         2300
 Estimated remaining time in seconds =    602.1519    
 Estimated remaining time in hh:mm:ss =      0 h 10 m 02 s
 Estimated total run time in seconds =    10995.82    
 Estimated total run time in hh:mm:ss =      3 h 03 m 15 s
 We have done    94.52381     % of that
 The run will finish approximately on (in local time): Thu Sep 07, 2023 02:46
 
 Time step #        39800
 Time:    395.3900      seconds
 Elapsed time in seconds =    10421.2119784864     
 Elapsed time in hh:mm:ss =      2 h 53 m 41 s
 Mean elapsed time per time step in seconds =   0.2618395    
 Max norm displacement vector U in all slices (m) =   0.5266792    
 Time steps done =        39800  out of        42000
 Time steps remaining =         2200
 Estimated remaining time in seconds =    576.0469    
 Estimated remaining time in hh:mm:ss =      0 h 09 m 36 s
 Estimated total run time in seconds =    10997.26    
 Estimated total run time in hh:mm:ss =      3 h 03 m 17 s
 We have done    94.76190     % of that
 The run will finish approximately on (in local time): Thu Sep 07, 2023 02:46
 
 Time step #        39900
 Time:    396.3900      seconds
 Elapsed time in seconds =    10449.0033769045     
 Elapsed time in hh:mm:ss =      2 h 54 m 09 s
 Mean elapsed time per time step in seconds =   0.2618798    
 Max norm displacement vector U in all slices (m) =   0.5265220    
 Time steps done =        39900  out of        42000
 Time steps remaining =         2100
 Estimated remaining time in seconds =    549.9476    
 Estimated remaining time in hh:mm:ss =      0 h 09 m 09 s
 Estimated total run time in seconds =    10998.95    
 Estimated total run time in hh:mm:ss =      3 h 03 m 18 s
 We have done    95.00000     % of that
 The run will finish approximately on (in local time): Thu Sep 07, 2023 02:46
 
 Time step #        40000
 Time:    397.3900      seconds
 Elapsed time in seconds =    10476.2192452509     
 Elapsed time in hh:mm:ss =      2 h 54 m 36 s
 Mean elapsed time per time step in seconds =   0.2619055    
 Max norm displacement vector U in all slices (m) =   0.5268731    
 Time steps done =        40000  out of        42000
 Time steps remaining =         2000
 Estimated remaining time in seconds =    523.8110    
 Estimated remaining time in hh:mm:ss =      0 h 08 m 43 s
 Estimated total run time in seconds =    11000.03    
 Estimated total run time in hh:mm:ss =      3 h 03 m 20 s
 We have done    95.23810     % of that
 The run will finish approximately on (in local time): Thu Sep 07, 2023 02:46
 
 
 Total number of time steps done:        40000
 Writing the seismograms in parallel took    5.713157      seconds
 
 Time step #        40100
 Time:    398.3900      seconds
 Elapsed time in seconds =    10508.7572991481     
 Elapsed time in hh:mm:ss =      2 h 55 m 08 s
 Mean elapsed time per time step in seconds =   0.2620638    
 Max norm displacement vector U in all slices (m) =   0.5262499    
 Time steps done =        40100  out of        42000
 Time steps remaining =         1900
 Estimated remaining time in seconds =    497.9212    
 Estimated remaining time in hh:mm:ss =      0 h 08 m 17 s
 Estimated total run time in seconds =    11006.68    
 Estimated total run time in hh:mm:ss =      3 h 03 m 26 s
 We have done    95.47619     % of that
 The run will finish approximately on (in local time): Thu Sep 07, 2023 02:46
 
 Time step #        40200
 Time:    399.3900      seconds
 Elapsed time in seconds =    10535.5791518955     
 Elapsed time in hh:mm:ss =      2 h 55 m 35 s
 Mean elapsed time per time step in seconds =   0.2620791    
 Max norm displacement vector U in all slices (m) =   0.5269625    
 Time steps done =        40200  out of        42000
 Time steps remaining =         1800
 Estimated remaining time in seconds =    471.7423    
 Estimated remaining time in hh:mm:ss =      0 h 07 m 51 s
 Estimated total run time in seconds =    11007.32    
 Estimated total run time in hh:mm:ss =      3 h 03 m 27 s
 We have done    95.71429     % of that
 The run will finish approximately on (in local time): Thu Sep 07, 2023 02:46
 
 Time step #        40300
 Time:    400.3900      seconds
 Elapsed time in seconds =    10562.8060900436     
 Elapsed time in hh:mm:ss =      2 h 56 m 02 s
 Mean elapsed time per time step in seconds =   0.2621044    
 Max norm displacement vector U in all slices (m) =   0.5264172    
 Time steps done =        40300  out of        42000
 Time steps remaining =         1700
 Estimated remaining time in seconds =    445.5774    
 Estimated remaining time in hh:mm:ss =      0 h 07 m 25 s
 Estimated total run time in seconds =    11008.38    
 Estimated total run time in hh:mm:ss =      3 h 03 m 28 s
 We have done    95.95238     % of that
 The run will finish approximately on (in local time): Thu Sep 07, 2023 02:46
 
 Time step #        40400
 Time:    401.3900      seconds
 Elapsed time in seconds =    10590.4105796199     
 Elapsed time in hh:mm:ss =      2 h 56 m 30 s
 Mean elapsed time per time step in seconds =   0.2621389    
 Max norm displacement vector U in all slices (m) =   0.5267323    
 Time steps done =        40400  out of        42000
 Time steps remaining =         1600
 Estimated remaining time in seconds =    419.4222    
 Estimated remaining time in hh:mm:ss =      0 h 06 m 59 s
 Estimated total run time in seconds =    11009.83    
 Estimated total run time in hh:mm:ss =      3 h 03 m 29 s
 We have done    96.19048     % of that
 The run will finish approximately on (in local time): Thu Sep 07, 2023 02:46
 
 Time step #        40500
 Time:    402.3900      seconds
 Elapsed time in seconds =    10617.9986951727     
 Elapsed time in hh:mm:ss =      2 h 56 m 57 s
 Mean elapsed time per time step in seconds =   0.2621728    
 Max norm displacement vector U in all slices (m) =   0.5266679    
 Time steps done =        40500  out of        42000
 Time steps remaining =         1500
 Estimated remaining time in seconds =    393.2592    
 Estimated remaining time in hh:mm:ss =      0 h 06 m 33 s
 Estimated total run time in seconds =    11011.26    
 Estimated total run time in hh:mm:ss =      3 h 03 m 31 s
 We have done    96.42857     % of that
 The run will finish approximately on (in local time): Thu Sep 07, 2023 02:46
 
 Time step #        40600
 Time:    403.3900      seconds
 Elapsed time in seconds =    10645.5855820118     
 Elapsed time in hh:mm:ss =      2 h 57 m 25 s
 Mean elapsed time per time step in seconds =   0.2622066    
 Max norm displacement vector U in all slices (m) =   0.5265038    
 Time steps done =        40600  out of        42000
 Time steps remaining =         1400
 Estimated remaining time in seconds =    367.0892    
 Estimated remaining time in hh:mm:ss =      0 h 06 m 07 s
 Estimated total run time in seconds =    11012.67    
 Estimated total run time in hh:mm:ss =      3 h 03 m 32 s
 We have done    96.66666     % of that
 The run will finish approximately on (in local time): Thu Sep 07, 2023 02:46
 
 Time step #        40700
 Time:    404.3900      seconds
 Elapsed time in seconds =    10672.4993498254     
 Elapsed time in hh:mm:ss =      2 h 57 m 52 s
 Mean elapsed time per time step in seconds =   0.2622236    
 Max norm displacement vector U in all slices (m) =   0.5266805    
 Time steps done =        40700  out of        42000
 Time steps remaining =         1300
 Estimated remaining time in seconds =    340.8907    
 Estimated remaining time in hh:mm:ss =      0 h 05 m 40 s
 Estimated total run time in seconds =    11013.39    
 Estimated total run time in hh:mm:ss =      3 h 03 m 33 s
 We have done    96.90476     % of that
 The run will finish approximately on (in local time): Thu Sep 07, 2023 02:46
 
 Time step #        40800
 Time:    405.3900      seconds
 Elapsed time in seconds =    10699.2688240118     
 Elapsed time in hh:mm:ss =      2 h 58 m 19 s
 Mean elapsed time per time step in seconds =   0.2622370    
 Max norm displacement vector U in all slices (m) =   0.5267377    
 Time steps done =        40800  out of        42000
 Time steps remaining =         1200
 Estimated remaining time in seconds =    314.6844    
 Estimated remaining time in hh:mm:ss =      0 h 05 m 14 s
 Estimated total run time in seconds =    11013.95    
 Estimated total run time in hh:mm:ss =      3 h 03 m 33 s
 We have done    97.14286     % of that
 The run will finish approximately on (in local time): Thu Sep 07, 2023 02:46
 
 Time step #        40900
 Time:    406.3900      seconds
 Elapsed time in seconds =    10726.2237663399     
 Elapsed time in hh:mm:ss =      2 h 58 m 46 s
 Mean elapsed time per time step in seconds =   0.2622549    
 Max norm displacement vector U in all slices (m) =   0.5264826    
 Time steps done =        40900  out of        42000
 Time steps remaining =         1100
 Estimated remaining time in seconds =    288.4803    
 Estimated remaining time in hh:mm:ss =      0 h 04 m 48 s
 Estimated total run time in seconds =    11014.70    
 Estimated total run time in hh:mm:ss =      3 h 03 m 34 s
 We have done    97.38095     % of that
 The run will finish approximately on (in local time): Thu Sep 07, 2023 02:46
 
 Time step #        41000
 Time:    407.3900      seconds
 Elapsed time in seconds =    10753.8624851918     
 Elapsed time in hh:mm:ss =      2 h 59 m 13 s
 Mean elapsed time per time step in seconds =   0.2622893    
 Max norm displacement vector U in all slices (m) =   0.5267881    
 Time steps done =        41000  out of        42000
 Time steps remaining =         1000
 Estimated remaining time in seconds =    262.2893    
 Estimated remaining time in hh:mm:ss =      0 h 04 m 22 s
 Estimated total run time in seconds =    11016.15    
 Estimated total run time in hh:mm:ss =      3 h 03 m 36 s
 We have done    97.61905     % of that
 The run will finish approximately on (in local time): Thu Sep 07, 2023 02:46
 
